%%%%%%%%%%%%%%%%%%%%%%%%%%%%%%%%%%%%%%%%%%%%%%%%%%%%%%%%%%%%%%%%%%%%%%%%%%%%%%%%
%                                                                              %
% SU2 configuration file                                                       %
% Case description: Transonic simulation RAE2822 (RANS)                        %
% Author: Francisco Palacios                                                   %
% Institution: Stanford University                                             %
% Date: 5/15/2013                                                              %
% File Version 3.2.9 "eagle"                                                   %
%                                                                              %
%%%%%%%%%%%%%%%%%%%%%%%%%%%%%%%%%%%%%%%%%%%%%%%%%%%%%%%%%%%%%%%%%%%%%%%%%%%%%%%%
%
%
% ------------- DIRECT, ADJOINT, AND LINEARIZED PROBLEM DEFINITION ------------%
%
% Solver type (EULER, NAVIER_STOKES =laminar, RANS,
%                               INC_EULER, INC_NAVIER_STOKES, INC_RANS,
%                                NEMO_EULER, NEMO_NAVIER_STOKES,
%                               FEM_EULER, FEM_NAVIER_STOKES, FEM_RANS, FEM_LES,
%                               HEAT_EQUATION_FVM, ELASTICITY)
SOLVER= RANS  %PHYSICAL_PROBLEM= NAVIER_STOKES  %NAVIER-STOKES=laminar
%
% Specify turbulence model (NONE, SA, SA_NEG, SST, SA_E, SA_COMP, SA_E_COMP, SST_SUST)
KIND_TURB_MODEL= SA
%
% Specify subgrid scale model(NONE, IMPLICIT_LES, SMAGORINSKY, WALE, VREMAN)
KIND_SGS_MODEL= NONE
%
% Specify Hybrid RANS/LES for SA family (NONE, SADES, SADDES)
% HYBRID_RANSLES= SA_EDDES
%
% DES Constant (0.65)
% DES_CONST= 0.65
%
% Mathematical problem (DIRECT, ADJOINT, LINEARIZED)
MATH_PROBLEM= DIRECT
%
% Restart solution (NO, YES)
RESTART_SOL= YES
%
%
% -------------------- COMPRESSIBLE FREE-STREAM DEFINITION --------------------%
%
% Mach number (non-dimensional, based on the free-stream values)
MACH_NUMBER= 0.8  
%
% Angle of attack (degrees, only for compressible flows)
AoA= 2.00
%
% Free-stream temperature (288.15 K by default)
FREESTREAM_TEMPERATURE= 288.15
%
FREESTREAM_PRESSURE= 101325.0

% Reynolds number (non-dimensional, based on the free-stream values)
REYNOLDS_NUMBER= 3.60E6     
%
% Reynolds length (1 m by default)
REYNOLDS_LENGTH= 1.0000
%
%
% ------------------------- UNSTEADY SIMULATION -------------------------------%
%
% Time domain
TIME_DOMAIN=YES   
%
% Unsteady simulation (NO, TIME_STEPPING, DUAL_TIME_STEPPING-1ST_ORDER,
%                      DUAL_TIME_STEPPING-2ND_ORDER, TIME_SPECTRAL)
% TIME_MARCHING= NO  %UNSTEADY_SIMULATION= NO
TIME_MARCHING= DUAL_TIME_STEPPING-2ND_ORDER  
%
% Time Step for dual time stepping simulations (s)
TIME_STEP= 5.0e-4
%
% Total Physical Time for dual time stepping simulations (s)
MAX_TIME= 1.0  
%
% Unsteady Courant-Friedrichs-Lewy number of the finest grid
UNST_CFL_NUMBER= 0.0
%
% Number of internal iterations (dual time method)
% INNER_ITER= 70
INNER_ITER= 24
%50
%110  
%OUTER_iter= 64  # for multizones
%
% Iteration number to begin unsteady restarts
RESTART_ITER= 3      
%
%
% ----------------------- DYNAMIC MESH DEFINITION -----------------------------%
%
% Type of dynamic mesh (NONE, RIGID_MOTION, ROTATING_FRAME,
%                       STEADY_TRANSLATION,
%                       ELASTICITY, GUST)
GRID_MOVEMENT= RIGID_MOTION       
%
%
%%%%%%%%%%%%%%%%%%%%%%%%%%%%%%%%%%%%%%%%%%%%%%%%%%%%%%%%%%%%%%%%%%%%%
% OBSOLETE
%
% Type of mesh motion (NONE, FLUTTER, RIGID_ROTATION, RIGID_PITCHING)
%GRID_MOVEMENT_KIND= RIGID_MOTION  % obsolete and split to GRID_MOVEMENT and SURFACE_MOVEMENT
%
% Constant plunging rate
%TRANSLATION_RATE_X=0.0
%TRANSLATION_RATE_Y=0.0     
% ROTATION_RATE_Y=1.0     
%ROTATION_RATE_Y= 0.0    
%TRANSLATION_RATE_Z=0.0000000
%
% Coordinates of the motion origin
%MOTION_ORIGIN_X= 0.50000
%MOTION_ORIGIN_Y= 0.0
%MOTION_ORIGIN_Z= 0.0
%
% Plunging angular freq. (rad/s) in x, y, & z directions
%PLUNGING_OMEGA_X= 0.0
%PLUNGING_OMEGA_Y= 0.000000
%PLUNGING_OMEGA_Z= 0.0
%
%PITCHING_OMEGA_Z= 15.0
%
% Plunging amplitude (m) in x, y, & z directions
%PLUNGING_AMPL_X= 0.0
%PLUNGING_AMPL_Y= 0.0000000
%PLUNGING_AMPL_Z= 0.0
%
%PITCHING_AMPL_Z= 0.25
%
%%%%%%%%%%%%%%%%%%%%%%%%%%%%%%%%%%%%%%%%%%%%%%%%%%%%%%%%%%%%%%%%%%%%
%
%
% Motion mach number (non-dimensional). Used for initializing a viscous flow
% with the Reynolds number and for computing force coeffs. with dynamic meshes.
MACH_MOTION= 0.8 
%
% Coordinates of the motion origin
MOTION_ORIGIN= 0.5 0.0 0.0
%
% Angular velocity vector (rad/s) about the motion origin
ROTATION_RATE = 0.0 0.0 0.0
%
% Pitching angular freq. (rad/s) about the motion origin
% PITCHING_OMEGA= 0.0 0.0 -10.0
PITCHING_OMEGA= 0.0 0.0 -10.0
% 0.0 0.0 15.0
%
% Pitching amplitude (degrees) about the motion origin
PITCHING_AMPL= 0.0 0.0 0.25
% 0.0 0.0 0.25
%
% Pitching phase offset (degrees) about the motion origin
PITCHING_PHASE= 0.0 0.0 0.0
%
% Translational velocity (m/s or ft/s) in the x, y, & z directions
TRANSLATION_RATE = 0.0 0.0 0.0
%
% Plunging angular freq. (rad/s) in x, y, & z directions
% PLUNGING_OMEGA= 0.0 27.0 0.0
PLUNGING_OMEGA= 0.0 27.0 0.0
% 0.0 15.0 0.0
%0.0 95.0 0.0
%
% Plunging amplitude (m or ft) in x, y, & z directions
PLUNGING_AMPL= 0.0 0.015 0.0 
% 0.0 0.04 0.0
%
% Type of dynamic surface movement (NONE, DEFORMING, 
%                       MOVING_WALL, FLUID_STRUCTURE, FLUID_STRUCTURE_STATIC,
%                       AEROELASTIC, EXTERNAL, EXTERNAL_ROTATION,
%                       AEROELASTIC_RIGID_MOTION)
SURFACE_MOVEMENT= NONE
%
% Moving wall boundary marker(s) (NONE = no marker, ignored for RIGID_MOTION)
MARKER_MOVING= ( NONE )
%
% Coordinates of the motion origin
SURFACE_MOTION_ORIGIN= 0.25
%
% Angular velocity vector (rad/s) about the motion origin
SURFACE_ROTATION_RATE = 0.0 0.0 0.0
%
% Pitching angular freq. (rad/s) about the motion origin
SURFACE_PITCHING_OMEGA= 0.0 0.0 0.0
%
% Pitching amplitude (degrees) about the motion origin
SURFACE_PITCHING_AMPL= 0.0 0.0 0.0
%
% Pitching phase offset (degrees) about the motion origin
SURFACE_PITCHING_PHASE= 0.0 0.0 0.0
%
% Translational velocity (m/s or ft/s) in the x, y, & z directions
SURFACE_TRANSLATION_RATE = 0.0 0.0 0.0
%
% Plunging angular freq. (rad/s) in x, y, & z directions
SURFACE_PLUNGING_OMEGA= 0.0 0.0 0.0
%
% Plunging amplitude (m or ft) in x, y, & z directions
SURFACE_PLUNGING_AMPL= 0.0 0.0 0.0
%
% Move Motion Origin for marker moving (1 or 0)
MOVE_MOTION_ORIGIN = 0
%
%
% ---------------------- REFERENCE VALUE DEFINITION ---------------------------%
%
% Reference origin for moment computation
REF_ORIGIN_MOMENT_X = 0.500
REF_ORIGIN_MOMENT_Y = 0.00
REF_ORIGIN_MOMENT_Z = 0.00
%
% Reference length for pitching, rolling, and yawing non-dimensional moment
REF_LENGTH= 1.0  
%
% Reference area for force coefficients (0 implies automatic calculation)
REF_AREA= 1.0  
%
% Flow non-dimensionalization (DIMENSIONAL, FREESTREAM_PRESS_EQ_ONE,
%                              FREESTREAM_VEL_EQ_MACH, FREESTREAM_VEL_EQ_ONE)
REF_DIMENSIONALIZATION= DIMENSIONAL
%
%
% -------------------- BOUNDARY CONDITION DEFINITION --------------------------%
%
% Navier-Stokes wall boundary marker(s) (NONE = no marker)
MARKER_HEATFLUX= ( Airfoil,0.0 )
%
% Farfield boundary marker(s) (NONE = no marker)
MARKER_FAR= ( Farfield )       
%
% Symmetry boundary marker(s) (NONE = no marker)
% MARKER_SYM= ( SYM1, SYM2 )     
%
% Marker(s) of the surface to be plotted or designed
MARKER_PLOTTING= ( Airfoil )       
%
% Marker(s) of the surface where the functional (Cd, Cl, etc.) will be evaluated
MARKER_MONITORING= ( Airfoil )       
%
%
% ------------------------ LINEAR SOLVER DEFINITION ---------------------------%
%
% Linear solver for the implicit (or discrete adjoint) formulation (BCGSTAB, FGMRES)
% LINEAR_SOLVER= FGMRES
LINEAR_SOLVER= BCGSTAB
%
% Preconditioner of the Krylov linear solver (NONE, JACOBI, LINELET)
% LINEAR_SOLVER_PREC= LU_SGS
LINEAR_SOLVER_PREC= ILU
%
% Min error of the linear solver for the implicit formulation
LINEAR_SOLVER_ERROR= 1E-10
%
% Max number of iterations of the linear solver for the implicit formulation
LINEAR_SOLVER_ITER= 15
%
%
% ----------------------- SLOPE LIMITER DEFINITION ----------------------------%
%
% Reference element length for computing the slope and sharp edges limiters.
% REF_ELEM_LENGTH= 0.1
%
% Coefficient for the limiter
% LIMITER_COEFF= 1.0
%
% Coefficient for the sharp edges limiter
% SHARP_EDGES_COEFF= 3.0
%
% Reference coefficient (sensitivity) for detecting sharp edges.
% REF_SHARP_EDGES= 3.0
%
% Remove sharp edges from the sensitivity evaluation (NO, YES)
% SENS_REMOVE_SHARP= NO
%
%
% ------------- COMMON PARAMETERS DEFINING THE NUMERICAL METHOD ---------------%
%
% Numerical method for spatial gradients (GREEN_GAUSS, WEIGHTED_LEAST_SQUARES)
NUM_METHOD_GRAD= GREEN_GAUSS               
% NUM_METHOD_GRAD= WEIGHTED_LEAST_SQUARES
%
% Courant-Friedrichs-Lewy condition of the finest grid
% CFL_NUMBER=  5.00
CFL_NUMBER= 4.00 
% 2
% 10.0  
%15.0
%
% Adaptive CFL number (NO, YES)
CFL_ADAPT= NO
%
% Parameters of the adaptive CFL number (factor down, factor up, CFL min value,
%                                        CFL max value )
CFL_ADAPT_PARAM= ( 1.5, 0.5, 1.0, 100.0 )
%
% Number of total iterations
%EXT_ITER=40000  %OBSOLETE
%
%
% -------------------------- MULTIGRID PARAMETERS -----------------------------%
%
% Multi-Grid Levels (0 = no multi-grid)
MGLEVEL= 2 
%
% Multi-grid cycle (V_CYCLE, W_CYCLE, FULLMG_CYCLE)
MGCYCLE= W_CYCLE
%
% Multi-Grid PreSmoothing Level
MG_PRE_SMOOTH= ( 1, 2, 3, 3 )
%
% Multi-Grid PostSmoothing Level
MG_POST_SMOOTH= ( 1, 2, 3, 3 )
%
% Jacobi implicit smoothing of the correction
MG_CORRECTION_SMOOTH= ( 0, 0, 0, 0 )
%
% Damping factor for the residual restriction
MG_DAMP_RESTRICTION= 0.9
%
% Damping factor for the correction prolongation
MG_DAMP_PROLONGATION= 0.9
%
%
% -------------------- FLOW NUMERICAL METHOD DEFINITION -----------------------%
%
% Convective numerical method (JST, LAX-FRIEDRICH, CUSP, ROE, AUSM, HLLC,
%                              TURKEL_PREC, MSW)
% CONV_NUM_METHOD_FLOW= ROE   
CONV_NUM_METHOD_FLOW= JST   
% CONV_NUM_METHOD_FLOW= SLAU2
% ROE_LOW_DISSIPATION= FD
%
% Spatial numerical order integration (1ST_ORDER, 2ND_ORDER, 2ND_ORDER_LIMITER)
%
MUSCL_FLOW= YES  
%
% Slope limiter (VENKATAKRISHNAN, MINMOD)
SLOPE_LIMITER_FLOW= VENKATAKRISHNAN
%
% Coefficient for the limiter (smooth regions)
VENKAT_LIMITER_COEFF= 0.0
%
% 2nd and 4th order artificial dissipation coefficients
JST_SENSOR_COEFF= ( 0.5, 0.02 )
%
% Time discretization (RUNGE-KUTTA_EXPLICIT, EULER_IMPLICIT, EULER_EXPLICIT)
TIME_DISCRE_FLOW= EULER_IMPLICIT
%
%
% -------------------- TURBULENT NUMERICAL METHOD DEFINITION ------------------%
%
% Convective numerical method (SCALAR_UPWIND)
CONV_NUM_METHOD_TURB= SCALAR_UPWIND
%
% Monotonic Upwind Scheme for Conservation Laws (TVD) in the turbulence equations.
%           Required for 2nd order upwind schemes (NO, YES)
MUSCL_TURB= NO
%
% Slope limiter (VENKATAKRISHNAN, MINMOD)
SLOPE_LIMITER_TURB= VENKATAKRISHNAN
% SLOPE_LIMITER_TURB= BARTH_JESPERSEN
%
% Time discretization (EULER_IMPLICIT)
TIME_DISCRE_TURB= EULER_IMPLICIT
%
%
% --------------------------- CONVERGENCE PARAMETERS --------------------------%
%
% Number of total iterations
% unsteady  or TIME_STEP * MAX_TIME, whichever is smaller 
TIME_ITER= 20000   
% ITER= 12000   % steady
%
% Convergence criteria (CAUCHY, RESIDUAL)
%https://su2code.github.io/docs_v7/Solver-Setup/
%
CONV_CRITERIA= RESIDUAL
%
% Residual reduction (order of magnitude with respect to the initial value)
% RESIDUAL_REDUCTION= 4 %obsolete
%
% Min value of the residual (log10 of the residual)
CONV_RESIDUAL_MINVAL=-8  
%
% Start convergence criteria at iteration number
CONV_STARTITER= 0  
%
%
% Convergence field 
% Function to apply the criteria (LIFT, DRAG, NEARFIELD_PRESS, SENS_GEOMETRY, 
% 	      	    		 SENS_MACH, DELTA_LIFT, DELTA_DRAG)
CONV_FIELD= DRAG  
%CAUCHY_FUNC_FLOW= DRAG
%
% Number of elements to apply the criteria
CONV_CAUCHY_ELEMS= 200  
%100
%
% Epsilon to control the series convergence
CONV_CAUCHY_EPS= 1E-6  
%
%
% DESIGN VARIABLES
%
DV_KIND= ROTATE_GRID 
%
% - NO_DEFORMATION ( 1.0 )
% - TRANSLATE_GRID ( x_Disp, y_Disp, z_Disp ), as a unit vector
% - ROTATE_GRID ( x_Orig, y_Orig, z_Orig, x_End, y_End, z_End ) axis, DV_VALUE in deg.
% - SCALE_GRID ( 1.0 )
DV_PARAM= ( 0.5000, -1.0, 0.0, 0.5000, 1.0, 0.0 )
%
% Value of the deformation
DV_VALUE= 0.25000
%
%
% ------------------------- INPUT/OUTPUT INFORMATION --------------------------%
%
% Mesh input file
% MESH_FILENAME= Zug_Hybrid_V2.cgns        
% MESH_FILENAME= Zugfront.cgns        
% MESH_FILENAME= BSCW_ANSYS_Coarse.cgns                       
% MESH_FILENAME= sc20414O.su2                                  
% MESH_FILENAME= sc20414-fine-O.su2  
MESH_FILENAME= NASA_SC20414_AIRFOIL_v22.su2
% MESH_FILENAME= mesh.su2
%
% Mesh input file format (SU2, CGNS, NETCDF_ASCII)
% MESH_FORMAT= CGNS 
MESH_FORMAT= SU2   
%
% Mesh output file
MESH_OUT_FILENAME= sc20414O_unsteady.su2     
%
% Restart flow input file
SOLUTION_FILENAME= restart_flow.csv  
%
% Output file format (TECPLOT, TECPLOT_BINARY, PARAVIEW,
%                     FIELDVIEW, FIELDVIEW_BINARY)
%TABULAR_FORMAT= CSV      % OUTPUT_FORMAT= PARAVIEW_BINARY  % old version!
TABULAR_FORMAT= TECPLOT
%
%% Format of files to output:
% OUTPUT_FILEs= (RESTART, TECPLOT_ASCII, RESTART_ASCII, TECPLOT)
OUTPUT_FILEs= (RESTART,PARAVIEW,SURFACE_CSV)
%
% Restart adjoint input file
SOLUTION_ADJ_FILENAME= solution_adj.dat
%
%
% Output file convergence history (w/o extension) 
CONV_FILENAME= history
%
% Output file restart flow
RESTART_FILENAME= restart_flow.dat  
%
% Output file restart adjoint
RESTART_ADJ_FILENAME= restart_adj.dat
%
%
% Output file flow (w/o extension) variables
VOLUME_FILENAME= flow  %VOLUME_FLOW_FILENAME= flow
%
% Output file adjoint (w/o extension) variables
VOLUME_ADJ_FILENAME= adjoint
%
%
% Output objective function gradient (using continuous adjoint)
GRAD_OBJFUNC_FILENAME= of_grad.dat
%
% Output file surface flow coefficient (w/o extension)
SURFACE_FILENAME= surface_flow  %SURFACE_FLOW_FILENAME= surface_flow
%
% Output file surface adjoint coefficient (w/o extension)
SURFACE_ADJ_FILENAME= surface_adjoint
%
%
% Writing solution file frequency for volume/surface output
OUTPUT_WRT_FREQ= 250
% 2500 
%WRT_SOL_FREQ_DUALTIME= 2500
% WRT_SURF_FREQ_DUALTIME= 1    
%
%
% Printing on screen convergence history
% https://su2code.github.io/docs_v7/Custom-Output/
SCREEN_OUTPUT= (TIME_ITER, INNER_ITER, RMS_DENSITY, RMS_ENERGY, LIFT, DRAG_ON_SURFACE, PLUNGE, PITCH) 
% printing frequency
SCREEN_WRT_FREQ_INNER= 1 
% 1 
SCREEN_WRT_FREQ_OUTER= 1
% 1
SCREEN_WRT_FREQ_TIME= 1  
%
%
% Writing convergence history frequency (dual time, only written to screen)
% https://su2code.github.io/docs_v7/Custom-Output/
HISTORY_OUTPUT= (ITER, TIME_DOMAIN, RMS_RES, AERO_COEFF )
% writing frequency on history file:
HISTORY_WRT_FREQ_TIME= 1
HISTORY_WRT_FREQ_OUTER= 0  
% 1
HISTORY_WRT_FREQ_INNER= 0
% 1
%
%
% READ_BINARY_RESTART = YES
% WRT_BINARY_RESTART = YES






